 
SIMULATION
  SIMULATION_TYPE SUBSURFACE
  PROCESS_MODELS
    SUBSURFACE_FLOW flow
      MODE RICHARDS
    /
  /
END

SUBSURFACE

GRID
  TYPE structured
  NXYZ swap{nx,5} swap{ny,5} 1
  BOUNDS
    0.d0 0.d0 0.d0
    100.d0 100.d0 1.d0
  END
END

REGION all
  COORDINATES
    0.d0 0.d0 0.d0
    100.d0 100.d0 1.d0
  /
END

REGION west_face
  FACE WEST
  COORDINATES
    0.d0 0.d0 0.d0
    0.d0 100.d0 1.d0
  /
END

REGION east_face
  FACE EAST
  COORDINATES
    100.d0 0.d0 0.d0
    100.d0 100.d0 1.d0
  /
END

REGION north_face
  FACE NORTH
  COORDINATES
    0.d0 100.d0 0.d0
    100.d0 100.d0 1.d0
  /
END

REGION south_face
  FACE SOUTH
  COORDINATES
    0.d0  0.d0  0.d0
    100.d0 0.d0 1.d0
  /
END

REGION center
  COORDINATE 50.d0 0.5d0 0.5d0
END

OBSERVATION
  REGION center
END

MATERIAL_PROPERTY plate
  ID 1
  POROSITY 0.20
  TORTUOSITY 1.d0
  ROCK_DENSITY 2.0E3
  CHARACTERISTIC_CURVES cc1
  PERMEABILITY
    PERM_X 1.d-14
    PERM_Y 1.d-14
    PERM_Z 1.d-14
  /
END

CHARACTERISTIC_CURVES cc1
  SATURATION_FUNCTION VAN_GENUCHTEN
    LIQUID_RESIDUAL_SATURATION 0.5d-1
    M 0.75
    ALPHA 1.d-3
  /
  PERMEABILITY_FUNCTION MUALEM
    LIQUID_RESIDUAL_SATURATION 0.1d0
    M 0.5d0
  /
  PERMEABILITY_FUNCTION MUALEM_VG_GAS
    LIQUID_RESIDUAL_SATURATION 0.1d0
    GAS_RESIDUAL_SATURATION 0.1d0
    M 0.5d0
  /
END

EOS WATER
  DENSITY EXPONENTIAL 1000. 101325. 1.0d-9
  VISCOSITY CONSTANT 1.728d-3 Pa-s
END

FLUID_PROPERTY
  DIFFUSION_COEFFICIENT 1.d-9
END

STRATA
  REGION all
  MATERIAL plate
END

TIME
  FINAL_TIME 0.10 day
  INITIAL_TIMESTEP_SIZE 1.d-4 day
  MAXIMUM_TIMESTEP_SIZE 0.0001 day at 0.d0 day
END

OUTPUT
  SNAPSHOT_FILE 
    #NO_PRINT_INITIAL
    TIMES day 0.01 0.04 0.06
    #NO_PRINT_FINAL
    FORMAT HDF5
  /
  OBSERVATION_FILE
    PERIODIC TIMESTEP 1
  /
END

DATASET pressure_initial
  HDF5_DATASET_NAME initial
  FILENAME ./dataset_kolditz10.hdf5
END

FLOW_CONDITION initial
  TYPE
    PRESSURE dirichlet
  /
  PRESSURE DATASET pressure_initial
END

FLOW_CONDITION west_face
  TYPE
    PRESSURE dirichlet
  /
  PRESSURE 101325. Pa
END

FLOW_CONDITION east_face
  TYPE
    PRESSURE dirichlet
  /
  PRESSURE 101325. Pa
END

FLOW_CONDITION north_face
  TYPE
    FLUX neumann
  /
  FLUX 0.d0 m/yr
END

FLOW_CONDITION south_face
  TYPE
    FLUX neumann
  /
  FLUX 0.d0 m/yr
END

INITIAL_CONDITION initial
  REGION all
  FLOW_CONDITION initial
END

BOUNDARY_CONDITION west_face
  REGION west_face
  FLOW_CONDITION west_face
END

BOUNDARY_CONDITION east_face
  FLOW_CONDITION east_face
  REGION east_face
END

BOUNDARY_CONDITION north_face
  REGION north_face
  FLOW_CONDITION north_face
END

BOUNDARY_CONDITION south_face
  FLOW_CONDITION south_face
  REGION south_face
END

END_SUBSURFACE
